#======================================================================

# CRYSTAL DATA

#----------------------------------------------------------------------

data_VESTA_phase_1


_chemical_name_common                  'CONTCAR\(24)                          '
_cell_length_a                         14.76000
_cell_length_b                         14.76000
_cell_length_c                         15.00000
_cell_angle_alpha                      90
_cell_angle_beta                       90
_cell_angle_gamma                      120
_space_group_name_H-M_alt              'P 1'
_space_group_IT_number                 1

loop_
_space_group_symop_operation_xyz
   'x, y, z'

loop_
   _atom_site_label
   _atom_site_occupancy
   _atom_site_fract_x
   _atom_site_fract_y
   _atom_site_fract_z
   _atom_site_adp_type
   _atom_site_B_iso_or_equiv
   _atom_site_type_symbol
   C1         1.0     0.002101      0.997412      0.172182     Biso  1.000000 C
   C2         1.0     0.114482      0.054653      0.170363     Biso  1.000000 C
   C3         1.0     0.005520      0.165779      0.176370     Biso  1.000000 C
   C4         1.0     0.119202      0.224163      0.180577     Biso  1.000000 C
   C5         1.0     0.002347      0.331500      0.166372     Biso  1.000000 C
   C6         1.0     0.113401      0.389045      0.170205     Biso  1.000000 C
   C7         1.0     0.000307      0.497909      0.152939     Biso  1.000000 C
   C8         1.0     0.110812      0.554689      0.152046     Biso  1.000000 C
   C9         1.0     0.000825      0.664596      0.149709     Biso  1.000000 C
   C10        1.0     0.111896      0.721492      0.145896     Biso  1.000000 C
   C11        1.0     0.001311      0.831159      0.159576     Biso  1.000000 C
   C12        1.0     0.112644      0.887991      0.154971     Biso  1.000000 C
   C13        1.0     0.169268      0.999026      0.161211     Biso  1.000000 C
   C14        1.0     0.281173      0.054856      0.159271     Biso  1.000000 C
   C15        1.0     0.174794      0.167134      0.177547     Biso  1.000000 C
   C16        1.0     0.172923      0.337548      0.182025     Biso  1.000000 C
   C17        1.0     0.165808      0.500022      0.162412     Biso  1.000000 C
   C18        1.0     0.275891      0.558326      0.167613     Biso  1.000000 C
   C19        1.0     0.166765      0.666138      0.146583     Biso  1.000000 C
   C20        1.0     0.277600      0.722881      0.148092     Biso  1.000000 C
   C21        1.0     0.168006      0.832689      0.147495     Biso  1.000000 C
   C22        1.0     0.279079      0.888659      0.146527     Biso  1.000000 C
   C23        1.0     0.336120      0.999571      0.151648     Biso  1.000000 C
   C24        1.0     0.446929      0.055051      0.153548     Biso  1.000000 C
   C25        1.0     0.336800      0.165072      0.168571     Biso  1.000000 C
   C26        1.0     0.450212      0.222554      0.168126     Biso  1.000000 C
   C27        1.0     0.329198      0.504976      0.185468     Biso  1.000000 C
   C28        1.0     0.440026      0.562393      0.193328     Biso  1.000000 C
   C29        1.0     0.332347      0.668521      0.158328     Biso  1.000000 C
   C30        1.0     0.442460      0.724825      0.164231     Biso  1.000000 C
   C31        1.0     0.334488      0.833707      0.146308     Biso  1.000000 C
   C32        1.0     0.445882      0.889545      0.150850     Biso  1.000000 C
   C33        1.0     0.502804      0.000034      0.153028     Biso  1.000000 C
   C34        1.0     0.613711      0.053680      0.158925     Biso  1.000000 C
   C35        1.0     0.502954      0.165917      0.160187     Biso  1.000000 C
   C36        1.0     0.614367      0.221444      0.161051     Biso  1.000000 C
   C37        1.0     0.613004      0.389755      0.171703     Biso  1.000000 C
   C38        1.0     0.496199      0.671077      0.180484     Biso  1.000000 C
   C39        1.0     0.500737      0.834448      0.159005     Biso  1.000000 C
   C40        1.0     0.611499      0.886007      0.166599     Biso  1.000000 C
   C41        1.0     0.668780      0.997261      0.164541     Biso  1.000000 C
   C42        1.0     0.780030      0.051595      0.169872     Biso  1.000000 C
   C43        1.0     0.669675      0.165215      0.160514     Biso  1.000000 C
   C44        1.0     0.780786      0.219619      0.162940     Biso  1.000000 C
   C45        1.0     0.669034      0.332792      0.163514     Biso  1.000000 C
   C46        1.0     0.779568      0.386595      0.160114     Biso  1.000000 C
   C47        1.0     0.777474      0.550999      0.164927     Biso  1.000000 C
   C48        1.0     0.663015      0.825677      0.176950     Biso  1.000000 C
   C49        1.0     0.775823      0.880088      0.177025     Biso  1.000000 C
   C50        1.0     0.834053      0.994055      0.174458     Biso  1.000000 C
   C51        1.0     0.946758      0.052949      0.175399     Biso  1.000000 C
   C52        1.0     0.836578      0.163395      0.167912     Biso  1.000000 C
   C53        1.0     0.948107      0.220010      0.171259     Biso  1.000000 C
   C54        1.0     0.835290      0.330744      0.160198     Biso  1.000000 C
   C55        1.0     0.946477      0.386745      0.159238     Biso  1.000000 C
   C56        1.0     0.834261      0.497891      0.158072     Biso  1.000000 C
   C57        1.0     0.945144      0.553762      0.151848     Biso  1.000000 C
   C58        1.0     0.834989      0.663742      0.164459     Biso  1.000000 C
   C59        1.0     0.945489      0.719531      0.156210     Biso  1.000000 C
   C60        1.0     0.832146      0.824007      0.174130     Biso  1.000000 C
   C61        1.0     0.945039      0.885004      0.168460     Biso  1.000000 C
   C62        1.0     0.645466      0.605711      0.322947     Biso  1.000000 C
   N1         1.0     0.282613      0.217898      0.179062     Biso  1.000000 N
   N2         1.0     0.279274      0.397764      0.192844     Biso  1.000000 N
   N3         1.0     0.505433      0.331859      0.177159     Biso  1.000000 N
   N4         1.0     0.495178      0.513082      0.208381     Biso  1.000000 N
   N5         1.0     0.603169      0.718535      0.184969     Biso  1.000000 N
   N6         1.0     0.668916      0.498547      0.174663     Biso  1.000000 N
   N7         1.0     0.781248      0.716274      0.174362     Biso  1.000000 N
   Co1        1.0     0.638206      0.611424      0.205519     Biso  1.000000 Co
   Cr1        1.0     0.394878      0.366774      0.200171     Biso  1.000000 Cr
   O1         1.0     0.568898      0.545164      0.373861     Biso  1.000000 O
   H1         1.0     0.505671      0.501455      0.333340     Biso  1.000000 H
